/*--------------------------------*- C++ -*----------------------------------*\
  =========                 |
  \\      /  F ield         | OpenFOAM: The Open Source CFD Toolbox
   \\    /   O peration     | Website:  https://openfoam.org
    \\  /    A nd           | Version:  8
     \\/     M anipulation  |
\*---------------------------------------------------------------------------*/
FoamFile
{
    version     2.0;
    format      binary;
    class       polyBoundaryMesh;
    location    "constant/polyMesh";
    object      boundary;
}
// * * * * * * * * * * * * * * * * * * * * * * * * * * * * * * * * * * * * * //

6
(
    front
    {
        type            empty;
        nFaces          13865;
        startFace       20585;
    }
    back
    {
        type            empty;
        nFaces          13865;
        startFace       34450;
    }
    walls
    {
        type            wall;
        nFaces          185;
        startFace       48315;
    }
    outlet
    {
        type            wall;
        nFaces          40;
        startFace       48500;
    }
    atmosphere
    {
        type            patch;
        physicalType    patch;
        nFaces          160;
        startFace       48540;
    }
    wave
    {
        type            patch;
        physicalType    patch;
        nFaces          40;
        startFace       48700;
    }
)

// ************************************************************************* //
